/*--------------------------------*- C++ -*----------------------------------*\
| =========                 |                                                 |
| \\      /  F ield         | OpenFOAM: The Open Source CFD Toolbox           |
|  \\    /   O peration     | Version:  v1612+                                |
|   \\  /    A nd           | Web:      www.OpenFOAM.com                      |
|    \\/     M anipulation  |                                                 |
\*---------------------------------------------------------------------------*/
FoamFile
{
    version     2.0;
    format      ascii;
    class       volScalarField;
    location    "0";
    object      alphat;
}
// * * * * * * * * * * * * * * * * * * * * * * * * * * * * * * * * * * * * * //

dimensions      [1 -1 -1 0 0 0 0];

internalField   uniform 0.00001;

boundaryField
{
    inlet
    {
        type            calculated;
    	value		    uniform 0.00001;
    }
    outlet
    {
        type            calculated;
	    value		    uniform 0.00001;
    }
    blade_wall
    {
        type            zeroGradient ;
    }
    hub_periodic
    {
        type            zeroGradient ;
    }
    shroud_periodic
    {
        type            zeroGradient ;
    }
    ylower
    {
        type            cyclic;
    }
    yupper
    {
        type            cyclic;
    }
}

// ************************************************************************* //
