/*--------------------------------*- C++ -*----------------------------------*\
| =========                 |                                                 |
| \\      /  F ield         | OpenFOAM: The Open Source CFD Toolbox           |
|  \\    /   O peration     | Version:  v1612+                                |
|   \\  /    A nd           | Web:      www.OpenFOAM.com                      |
|    \\/     M anipulation  |                                                 |
\*---------------------------------------------------------------------------*/
FoamFile
{
    version     2.0;
    format      ascii;
    class       volScalarField;
    location    "0";
    object      k;
}
// * * * * * * * * * * * * * * * * * * * * * * * * * * * * * * * * * * * * * //

kInlet <PARAM kinlet PARAM>;

dimensions [0 2 -2 0 0 0 0];

internalField uniform $kInlet;

boundaryField {

    blade_wall
    {
        type            fixedValue;
        value           uniform 1e-16 ;
    }
    inlet
    {
        type            fixedValue;
        value           uniform $kInlet;
    }
    outlet
    {
        type            zeroGradient;
        value           uniform 1;
    }
    hub_periodic
    {
        type            zeroGradient ;
    }
    shroud_periodic
    {
        type            zeroGradient ;
    }
    ylower
    {
        type            cyclic;
    }
    yupper
    {
        type            cyclic;
    }
}
