/*--------------------------------*- C++ -*----------------------------------*\
| =========                 |                                                 |
| \\      /  F ield         | OpenFOAM: The Open Source CFD Toolbox           |
|  \\    /   O peration     | Version:  v1612+                                |
|   \\  /    A nd           | Web:      www.OpenFOAM.com                      |
|    \\/     M anipulation  |                                                 |
\*---------------------------------------------------------------------------*/
FoamFile
{
    version     2.0;
    format      ascii;
    class       volScalarField;
    location    "0";
    object      omega;
}
// * * * * * * * * * * * * * * * * * * * * * * * * * * * * * * * * * * * * * //

inletvalue 200;

dimensions      [0 0 -1 0 0 0 0];

internalField uniform $inletvalue;

boundaryField {

    blade_wall
    {
        type omegaWallFunction;
        value uniform 1e6;
    }

    inlet
    {
        type            fixedValue;
        
        value           uniform $inletvalue;
    }

    outlet
    {
        type            zeroGradient;
    }

    hub_periodic
    {
        type            zeroGradient ;
    }

    shroud_periodic
    {
        type            zeroGradient ;
    }

    ylower
    {
        type            cyclic;
    }

    yupper
    {
        type            cyclic;
    }


}
// ************************************************************************* //
