/*--------------------------------*- C++ -*----------------------------------*\
| =========                 |                                                 |
| \\      /  F ield         | OpenFOAM: The Open Source CFD Toolbox           |
|  \\    /   O peration     | Version:  v1612+                                |
|   \\  /    A nd           | Web:      www.OpenFOAM.com                      |
|    \\/     M anipulation  |                                                 |
\*---------------------------------------------------------------------------*/
FoamFile
{
    version     2.0;
    format      ascii;
    class       volScalarField;
    location    "0";
    object      p;
}
// * * * * * * * * * * * * * * * * * * * * * * * * * * * * * * * * * * * * * //

dimensions      [1 -1 -2 0 0 0 0];

internalField   uniform 101350;

pinlet 101350;
poutlet 101350;

boundaryField
{
    inlet
    {
        type            waveTransmissive;
        gamma           1.4;
        value           uniform $pinlet;
    }
    outlet
    {
        type            waveTransmissive;
        psi             thermo:psi;
        gamma           1.4;
        lInf            0.001;
        value           uniform $poutlet;
        fieldInf        $poutlet;
    }
    hub_periodic
    {
        type            zeroGradient ;
    }
    blade_wall
    {
        type            zeroGradient;
    }
    shroud_periodic
    {
        type            zeroGradient ;
    }
    ylower
    {
        type            cyclic;
    }

    yupper
    {
        type            cyclic;
    }


}
// ************************************************************************* //
