/*--------------------------------*- C++ -*----------------------------------*\
| =========                 |                                                 |
| \\      /  F ield         | OpenFOAM: The Open Source CFD Toolbox           |
|  \\    /   O peration     | Version:  v1612+                                |
|   \\  /    A nd           | Web:      www.OpenFOAM.com                      |
|    \\/     M anipulation  |                                                 |
\*---------------------------------------------------------------------------*/
FoamFile
{
    version     2.0;
    format      ascii;
    class       volScalarField;
    location    "0";
    object      T;
}
// * * * * * * * * * * * * * * * * * * * * * * * * * * * * * * * * * * * * * //

dimensions      [0 0 0 1 0 0 0];

internalField   uniform 290;

Tinlet          290;
Toutlet		    290;

boundaryField
{
    inlet
    {
        type            waveTransmissive;
        gamma           1.4;
        fieldInf         $Tinlet;
        lInf            0.001;
        value           uniform $Tinlet;
    }

    outlet
    {
        type            waveTransmissive;
        gamma           1.4;
        value           uniform $Toutlet;
    }
    blade_wall
    {
        type            zeroGradient;
    }

    hub_periodic
    {
        type            zeroGradient ;
    }

    shroud_periodic
    {
        type            zeroGradient ;
    }

    ylower
    {
        type            cyclic;
    }

    yupper
    {
        type            cyclic;
    }

}


// ************************************************************************* //
