
/*--------------------------------*- C++ -*----------------------------------*
| =========                 |                                                 |
| \	    /  F ield         | OpenFOAM: The Open Source CFD Toolbox         |
|  \    /   O peration     | Version:  v1612+                                 |
|   \  /    A nd           | Web:	www.OpenFOAM.com                      |
|    \/     M anipulation  |                                                  |
\*---------------------------------------------------------------------------*/
FoamFile
{
    version     2.0;
    format	    ascii;
    class	    volVectorField;
    location    "0";
    object	    U;
}
// * * * * * * * * * * * * * * * * * * * * * * * * * * * * * * * * * * * * * //



dimensions      [0 1 -1 0 0 0 0];

uinlet <PARAM vel_u PARAM>;
vinlet <PARAM vel_v PARAM>;
winlet 0;

internalField   uniform ($uinlet 0 0);

boundaryField
{
    inlet
    {
        type            waveTransmissive;
        psi             thermo:psi;
        gamma           1.4;
        lInf            0.001;
        fieldInf        ($uinlet $vinlet $winlet);
        value           uniform ($uinlet $vinlet $winlet);
    }

    outlet
    {
     	type            waveTransmissive;
        gamma           1.4;
        value           uniform ($uinlet 0 0);
    }

    blade_wall
    {
     	type            noSlip;
    }

    hub_periodic
    {
        type            zeroGradient ;
    }

    shroud_periodic
    {
        type            zeroGradient ;
    }

    ylower
    {
        type            cyclic;
    }

    yupper
    {
        type            cyclic;
    }

}


// ************************************************************************* //
