/*--------------------------------*- C++ -*----------------------------------*\
| =========                 |                                                 |
| \\      /  F ield         | OpenFOAM: The Open Source CFD Toolbox           |
|  \\    /   O peration     | Version:  plus                                  |
|   \\  /    A nd           | Web:      www.OpenFOAM.com                      |
|    \\/     M anipulation  |                                                 |
\*---------------------------------------------------------------------------*/
FoamFile
{
    version     2.0;
    format      ascii;
    class       dictionary;
    location    "system";
    object      controlDict;
}
// * * * * * * * * * * * * * * * * * * * * * * * * * * * * * * * * * * * * * //

application     rhoPimpleFoam;

startFrom       <OPTION startfrom OPTION>;

startTime       0;

stopAt		    endTime;

endTime         <OPTION endtime OPTION>;

deltaT          <OPTION timestep OPTION>;

writeControl    runTime;

writeInterval   #calc "$endTime / 10";

purgeWrite      3;

writeFormat     ascii;

writePrecision  16;

writeCompression off;

timeFormat      general;

timePrecision   16;

runTimeModifiable true;

adjustTimeStep  on;

maxCo           <OPTION maxcourant OPTION>;

libs (
"libfieldFunctionObjects.so"
"libsampling.so"
"libAdvectiveFields.so"
);



fieldAverage1
    {
        type            fieldAverage;
        libs            ("libfieldFunctionObjects.so");
        writeControl    writeTime;
        startTime       1


        fields
        (
              wallShearStress
              {
                mean true;
                prime2Mean false;
                base time;
              }
              rho
              {
                mean true;
                prime2Mean false;
                base	time;
              }

	        U
            {
                mean        true;
                prime2Mean  true;
                base        time;
            }

            p
            {
              mean        true;
              prime2Mean  true;
              base        time;
            }
            T
            {
              mean        true;
              prime2Mean  true;
              base        time;
            }
            nut
            {
              mean        true;
	          prime2Mean  true;
              base        time;
            }
            alphat
            {
             mean 	      true;
             prime2Mean	  true;
             base 	      time;
	        }

	);
  }


}

// ************************************************************************* //
