/*--------------------------------*- C++ -*----------------------------------*\
| =========                 |                                                 |
| \      /  F ield         | OpenFOAM: The Open Source CFD Toolbox           |
|  \    /   O peration     | Version:  2.1.x                                 |
|   \  /    A nd           | Web:      www.OpenFOAM.org                      |
|    \/     M anipulation  |                                                 |
\*---------------------------------------------------------------------------*/
FoamFile
{
    version     2.0;
    format      ascii;
    class       dictionary;
    location    "system";
    object      decomposeParDict;
}
// * * * * * * * * * * * * * * * * * * * * * * * * * * * * * * * * * * * * * //


numberOfSubdomains <CONFIG processors CONFIG>;

method          hierarchical;

simpleCoeffs
{

}

hierarchicalCoeffs
{
    n               (<CONFIG processors CONFIG> 1 1);
    delta           0.001;
    order           yxz;
}

manualCoeffs
{
    dataFile        "";
}

scotchCoeffs
{

}


distributed     no;

roots           ( );


// ************************************************************************* //
