/*--------------------------------*- C++ -*----------------------------------*\
| =========                 |                                                 |
| \\      /  F ield         | OpenFOAM: The Open Source CFD Toolbox           |
|  \\    /   O peration     | Version:  v2206                                 |
|   \\  /    A nd           | Website:  www.openfoam.com                      |
|    \\/     M anipulation  |                                                 |
\*---------------------------------------------------------------------------*/
FoamFile
{
    version     2.0;
    format      ascii;
    class       dictionary;
    object      fvSolution;
}
// * * * * * * * * * * * * * * * * * * * * * * * * * * * * * * * * * * * * * //

solvers
{
    pcorr
    {
        solver PCG;
        preconditioner DIC;
        tolerance 1e-3;
        relTol 0;
    }
    p
    {
        solver          PCG;
        preconditioner  DIC;
        tolerance       1e-7;
        relTol          0.01;
    }

    pFinal
    {
        $p;
        smoother        DICGaussSeidel;
        tolerance       1e-07;
        relTol          0;
    }

    "(rho|U|e|k|omega)"
    {
        solver          PBiCG;
        preconditioner  DILU;
        tolerance       1e-7;
        relTol          0.1;
    }

    "(rho|U|e|k|omega)Final"
    {
        $U;
        relTol          0.01;
    }

}

PIMPLE
{
    momentumPredictor yes;
    nOuterCorrectors 2;
    nCorrectors     3;
    nNonOrthogonalCorrectors 2;
}

relaxationFactors
{

    equations
    {
        ".*"     0.9;
    p              0.4;
    U              0.7;
    k              0.2;
    omega          0.5;
    }
}

// ************************************************************************* //