/*--------------------------------*- C++ -*----------------------------------*\
| =========                 |                                                 |
| \\      /  F ield         | OpenFOAM: The Open Source CFD Toolbox           |
|  \\    /   O peration     | Version:  2.2.0                                 |
|   \\  /    A nd           | Web:      www.OpenFOAM.org                      |
|    \\/     M anipulation  |                                                 |
\*---------------------------------------------------------------------------*/
FoamFile
{
    version     2.0;
    format      ascii;
    class       dictionary;
    location    "system";
    object      fvSchemes;
}
// * * * * * * * * * * * * * * * * * * * * * * * * * * * * * * * * * * * * * //
solvers
{
    "rho.*"
    {
        solver          diagonal;
    }

    "p.*"
    {
        tolerance        1e-8;
        relTol           0;

        solver           PCG;
        preconditioner
        {
            preconditioner   GAMG;
            smoother         DIC;
            nPreSweeps       1;
            nPostSweeps      2;
            nFinestSweeps    2;
            nCellsInCoarsestLevel 10;
            agglomerator     faceAreaPair;
            mergeLevels      1;
        }
        minIter         3;
        maxIter         1000;
    }

    "U.*"
    {
        type             coupled;
        solver           PBiCICG;
        preconditioner   DILU;
        tolerance        (1e-8 1e-8 1e-8);
        relTol           (0 0 0);
    }

    "h.*"
    {
        solver           PBiCG;
        preconditioner   DILU;
        tolerance        1e-8;
        relTol           0;
    }
    e
    {
        solver           PCG;
        preconditioner
        {
            preconditioner   GAMG;
            smoother         DIC;
            nPreSweeps       1;
            nPostSweeps      2;
            nFinestSweeps    2;
            nCellsInCoarsestLevel 10;
            agglomerator     faceAreaPair;
            mergeLevels      1;
        }
        tolerance       1e-06;
        relTol          0;
    }
    eFinal
    {
        solver           PBiCG;
        preconditioner   DILU;
        tolerance        1e-8;
        relTol           0;
    }
    omega
    {
        solver           PCG;
        preconditioner
        {
            preconditioner   GAMG;
            smoother         DIC;
            nPreSweeps       1;
            nPostSweeps      2;
            nFinestSweeps    2;
            nCellsInCoarsestLevel 10;
            agglomerator     faceAreaPair;
            mergeLevels      1;
        }
        tolerance        1e-8;
        relTol           0;
    }
        omegaFinal
    {
        solver           PBiCG;
        preconditioner   DILU;
        tolerance        1e-8;
        relTol           0;
    }
    k
    {
        solver           PCG;
        preconditioner
        {
            preconditioner   GAMG;
            smoother         DIC;
            nPreSweeps       1;
            nPostSweeps      2;
            nFinestSweeps    2;
            nCellsInCoarsestLevel 10;
            agglomerator     faceAreaPair;
            mergeLevels      1;
        }
        tolerance        1e-8;
        relTol           0;
    }
    kFinal
    {
        solver           PBiCG;
        preconditioner   DILU;
        tolerance        1e-8;
        relTol           0;
    }
}

SIMPLE
{
    nNonOrthogonalCorrectors 3;
    pRefCell 0;
    pRefValue 0;
    rhoMin          rhoMin [1 -3 0 0 0] 0.5;
    rhoMax          rhoMax [1 -3 0 0 0] 2.0;
    transonic       no;
}

relaxationFactors
{
    fields
    {
        p                 0.2;
        rho               1.0;
    }
    equations
    {
        U                 0.8;
        "(e|h)"           0.8;
        nuTilda           0.8;
    }
}


// ************************************************************************* //
